1G9V_RQ3_A_801
     RDKit          3D

 25 26  0  0  0  0  0  0  0  0999 V2000
   16.1500   22.3350   42.8110 C   0  0  0  0  0  0  0  0  0  0  0  0
   15.3160   21.8930   41.9800 O   0  0  0  0  0  0  0  0  0  0  0  0
   16.9980   23.2070   42.5060 O   0  0  0  0  0  0  0  0  0  0  0  0
   16.1410   21.7710   44.2030 C   0  0  0  0  0  0  0  0  0  0  0  0
   15.1160   22.5540   45.0230 C   0  0  0  0  0  0  0  0  0  0  0  0
   17.5310   21.9290   44.8610 C   0  0  0  0  0  0  0  0  0  0  0  0
   15.7170   20.3840   44.1390 O   0  0  0  0  0  0  0  0  0  0  0  0
   16.5230   19.2430   43.6250 C   0  0  0  0  0  0  0  0  0  0  0  0
   16.2460   17.9700   44.1170 C   0  0  0  0  0  0  0  0  0  0  0  0
   16.9520   16.8770   43.6600 C   0  0  0  0  0  0  0  0  0  0  0  0
   17.9400   17.0290   42.7100 C   0  0  0  0  0  0  0  0  0  0  0  0
   17.5250   19.4050   42.6630 C   0  0  0  0  0  0  0  0  0  0  0  0
   18.2350   18.2860   42.2070 C   0  0  0  0  0  0  0  0  0  0  0  0
   18.6450   15.8760   42.2400 C   0  0  0  0  0  0  0  0  0  0  0  0
   17.8550   15.0410   41.2140 C   0  0  0  0  0  0  0  0  0  0  0  0
   16.7450   15.4130   40.8360 O   0  0  0  0  0  0  0  0  0  0  0  0
   18.2860   13.8040   41.0020 N   0  0  0  0  0  0  0  0  0  0  0  0
   17.7310   12.8920   40.1270 C   0  0  0  0  0  0  0  0  0  0  0  0
   16.3370   12.7960   39.9850 C   0  0  0  0  0  0  0  0  0  0  0  0
   15.7870   11.7440   39.2710 C   0  0  0  0  0  0  0  0  0  0  0  0
   16.6210   10.7910   38.7010 C   0  0  0  0  0  0  0  0  0  0  0  0
   18.5490   11.9350   39.5470 C   0  0  0  0  0  0  0  0  0  0  0  0
   18.0040   10.8950   38.8420 C   0  0  0  0  0  0  0  0  0  0  0  0
   14.3030   11.6400   39.1100 C   0  0  0  0  0  0  0  0  0  0  0  0
   18.9090    9.8760   38.2190 C   0  0  0  0  0  0  0  0  0  0  0  0
  1  2  1  0
  1  3  2  0
  1  4  1  0
  4  5  1  0
  4  6  1  0
  4  7  1  0
  7  8  1  0
  8  9  2  0
  9 10  1  0
 10 11  2  0
  8 12  1  0
 11 13  1  0
 12 13  2  0
 11 14  1  0
 14 15  1  0
 15 16  2  0
 15 17  1  0
 17 18  1  0
 18 19  2  0
 19 20  1  0
 20 21  2  0
 18 22  1  0
 21 23  1  0
 22 23  2  0
 20 24  1  0
 23 25  1  0
M  END
$$$$
