1G9V_RQ3_A_801
     RDKit          3D

 25 26  0  0  0  0  0  0  0  0999 V2000
   16.1500   22.3350   42.8110 C   0  0  0  0  0  0  0  0  0  0  0  0
   15.3160   21.8930   41.9800 O   0  0  0  0  0  0  0  0  0  0  0  0
   16.9980   23.2070   42.5060 O   0  0  0  0  0  0  0  0  0  0  0  0
   16.1410   21.7710   44.2030 C   0  0  0  0  0  0  0  0  0  0  0  0
   15.1160   22.5540   45.0230 C   0  0  0  0  0  0  0  0  0  0  0  0
   17.5310   21.9290   44.8610 C   0  0  0  0  0  0  0  0  0  0  0  0
   15.7170   20.3840   44.1390 O   0  0  0  0  0  0  0  0  0  0  0  0
   16.5230   19.2430   43.6250 C   0  0  0  0  0  0  0  0  0  0  0  0
   16.2460   17.9700   44.1170 C   0  0  0  0  0  0  0  0  0  0  0  0
   16.9520   16.8770   43.6600 C   0  0  0  0  0  0  0  0  0  0  0  0
   17.9400   17.0290   42.7100 C   0  0  0  0  0  0  0  0  0  0  0  0
   17.5250   19.4050   42.6630 C   0  0  0  0  0  0  0  0  0  0  0  0
   18.2350   18.2860   42.2070 C   0  0  0  0  0  0  0  0  0  0  0  0
   18.6450   15.8760   42.2400 C   0  0  0  0  0  0  0  0  0  0  0  0
   17.8550   15.0410   41.2140 C   0  0  0  0  0  0  0  0  0  0  0  0
   16.7450   15.4130   40.8360 O   0  0  0  0  0  0  0  0  0  0  0  0
   18.2860   13.8040   41.0020 N   0  0  0  0  0  0  0  0  0  0  0  0
   17.7310   12.8920   40.1270 C   0  0  0  0  0  0  0  0  0  0  0  0
   16.3370   12.7960   39.9850 C   0  0  0  0  0  0  0  0  0  0  0  0
   15.7870   11.7440   39.2710 C   0  0  0  0  0  0  0  0  0  0  0  0
   16.6210   10.7910   38.7010 C   0  0  0  0  0  0  0  0  0  0  0  0
   18.5490   11.9350   39.5470 C   0  0  0  0  0  0  0  0  0  0  0  0
   18.0040   10.8950   38.8420 C   0  0  0  0  0  0  0  0  0  0  0  0
   14.3030   11.6400   39.1100 C   0  0  0  0  0  0  0  0  0  0  0  0
   18.9090    9.8760   38.2190 C   0  0  0  0  0  0  0  0  0  0  0  0
  1  2  1  0
  1  3  2  0
  1  4  1  0
  4  5  1  0
  4  6  1  0
  4  7  1  0
  7  8  1  0
  8  9  2  0
  9 10  1  0
 10 11  2  0
  8 12  1  0
 11 13  1  0
 12 13  2  0
 11 14  1  0
 14 15  1  0
 15 16  2  0
 15 17  1  0
 17 18  1  0
 18 19  2  0
 19 20  1  0
 20 21  2  0
 18 22  1  0
 21 23  1  0
 22 23  2  0
 20 24  1  0
 23 25  1  0
M  END
$$$$
1G9V_RQ3_C_802
     RDKit          3D

 25 26  0  0  0  0  0  0  0  0999 V2000
    7.5450   23.1120   35.2500 C   0  0  0  0  0  0  0  0  0  0  0  0
    8.1960   22.5490   36.1560 O   0  0  0  0  0  0  0  0  0  0  0  0
    6.8530   24.1230   35.4790 O   0  0  0  0  0  0  0  0  0  0  0  0
    7.4260   22.4060   33.9270 C   0  0  0  0  0  0  0  0  0  0  0  0
    8.6850   22.7030   33.1030 C   0  0  0  0  0  0  0  0  0  0  0  0
    6.1820   22.8940   33.1630 C   0  0  0  0  0  0  0  0  0  0  0  0
    7.3680   20.9850   34.1730 O   0  0  0  0  0  0  0  0  0  0  0  0
    6.2880   20.2740   34.9160 C   0  0  0  0  0  0  0  0  0  0  0  0
    5.3830   20.9360   35.7520 C   0  0  0  0  0  0  0  0  0  0  0  0
    4.3900   20.2030   36.4330 C   0  0  0  0  0  0  0  0  0  0  0  0
    4.3150   18.8090   36.2680 C   0  0  0  0  0  0  0  0  0  0  0  0
    6.1970   18.8990   34.7650 C   0  0  0  0  0  0  0  0  0  0  0  0
    5.2210   18.1720   35.4340 C   0  0  0  0  0  0  0  0  0  0  0  0
    3.2650   17.9910   36.9950 C   0  0  0  0  0  0  0  0  0  0  0  0
    3.7750   17.1770   38.2090 C   0  0  0  0  0  0  0  0  0  0  0  0
    4.7180   17.5900   38.8990 O   0  0  0  0  0  0  0  0  0  0  0  0
    3.0120   16.1450   38.5760 N   0  0  0  0  0  0  0  0  0  0  0  0
    3.2430   15.2630   39.6310 C   0  0  0  0  0  0  0  0  0  0  0  0
    4.5270   14.7620   39.8720 C   0  0  0  0  0  0  0  0  0  0  0  0
    4.7140   13.7260   40.7860 C   0  0  0  0  0  0  0  0  0  0  0  0
    3.6260   13.1880   41.4600 C   0  0  0  0  0  0  0  0  0  0  0  0
    2.1590   14.7170   40.3170 C   0  0  0  0  0  0  0  0  0  0  0  0
    2.3500   13.6800   41.2310 C   0  0  0  0  0  0  0  0  0  0  0  0
    6.0960   13.1940   41.0460 C   0  0  0  0  0  0  0  0  0  0  0  0
    1.1800   13.0990   41.9760 C   0  0  0  0  0  0  0  0  0  0  0  0
  1  2  1  0
  1  3  2  0
  1  4  1  0
  4  5  1  0
  4  6  1  0
  4  7  1  0
  7  8  1  0
  8  9  2  0
  9 10  1  0
 10 11  2  0
  8 12  1  0
 11 13  1  0
 12 13  2  0
 11 14  1  0
 14 15  1  0
 15 16  2  0
 15 17  1  0
 17 18  1  0
 18 19  2  0
 19 20  1  0
 20 21  2  0
 18 22  1  0
 21 23  1  0
 22 23  2  0
 20 24  1  0
 23 25  1  0
M  END
$$$$
