
     RDKit          3D

 24 24  0  0  0  0  0  0  0  0999 V2000
   31.1350   -3.1560   50.2030 N   0  0  0  0  0  0  0  0  0  0  0  0
   31.8540   -2.7550   48.9920 C   0  0  1  0  0  0  0  0  0  0  0  0
   32.8350   -1.6010   49.2870 C   0  0  0  0  0  0  0  0  0  0  0  0
   32.1290   -0.4070   49.8790 C   0  0  0  0  0  0  0  0  0  0  0  0
   32.5870    0.1720   51.0740 C   0  0  0  0  0  0  0  0  0  0  0  0
   31.9500    1.2980   51.6030 C   0  0  0  0  0  0  0  0  0  0  0  0
   30.8550    1.8620   50.9420 C   0  0  0  0  0  0  0  0  0  0  0  0
   30.2300    2.9850   51.4800 O   0  0  0  0  0  0  0  0  0  0  0  0
   30.3980    1.2950   49.7440 C   0  0  0  0  0  0  0  0  0  0  0  0
   31.0330    0.1690   49.2130 C   0  0  0  0  0  0  0  0  0  0  0  0
   32.5680   -3.9440   48.4120 C   0  0  0  0  0  0  0  0  0  0  0  0
   32.1530   -4.4810   47.3470 O   0  0  0  0  0  0  0  0  0  0  0  0
   33.6730   -4.4760   49.0680 O   0  0  0  0  0  0  0  0  0  0  0  0
   30.2000   -2.7230   50.2070 H   0  0  0  0  0  0  0  0  0  0  0  0
   31.0370   -4.1810   50.2200 H   0  0  0  0  0  0  0  0  0  0  0  0
   31.1291   -2.3843   48.2523 H   0  0  0  0  0  0  0  0  0  0  0  0
   33.5967   -1.9535   49.9980 H   0  0  0  0  0  0  0  0  0  0  0  0
   33.2958   -1.2912   48.3374 H   0  0  0  0  0  0  0  0  0  0  0  0
   33.4517   -0.2632   51.5964 H   0  0  0  0  0  0  0  0  0  0  0  0
   32.3115    1.7417   52.5424 H   0  0  0  0  0  0  0  0  0  0  0  0
   30.4510    3.2820   52.3980 H   0  0  0  0  0  0  0  0  0  0  0  0
   29.5375    1.7375   49.2207 H   0  0  0  0  0  0  0  0  0  0  0  0
   30.6737   -0.2685   48.2699 H   0  0  0  0  0  0  0  0  0  0  0  0
   34.4780   -4.7360   48.5540 H   0  0  0  0  0  0  0  0  0  0  0  0
  1  2  1  0
  2  3  1  0
  3  4  1  0
  4  5  2  0
  5  6  1  0
  6  7  2  0
  7  8  1  0
  7  9  1  0
  9 10  2  0
  2 11  1  0
 11 12  2  0
 11 13  1  0
 10  4  1  0
  1 14  1  0
  1 15  1  0
  2 16  1  6
  3 17  1  0
  3 18  1  0
  5 19  1  0
  6 20  1  0
  8 21  1  0
  9 22  1  0
 10 23  1  0
 13 24  1  0
M  END
$$$$

     RDKit          3D

 24 24  0  0  0  0  0  0  0  0999 V2000
   31.1200   -3.0920   50.1900 N   0  0  0  0  0  0  0  0  0  0  0  0
   31.8590   -2.7190   48.9820 C   0  0  1  0  0  0  0  0  0  0  0  0
   32.8630   -1.5840   49.2770 C   0  0  0  0  0  0  0  0  0  0  0  0
   32.1780   -0.3700   49.8520 C   0  0  0  0  0  0  0  0  0  0  0  0
   31.0790    0.2060   49.1940 C   0  0  0  0  0  0  0  0  0  0  0  0
   30.4270    1.3120   49.7470 C   0  0  0  0  0  0  0  0  0  0  0  0
   30.8590    1.8490   50.9630 C   0  0  0  0  0  0  0  0  0  0  0  0
   30.1990    2.9520   51.5020 O   0  0  0  0  0  0  0  0  0  0  0  0
   31.9500    1.2740   51.6290 C   0  0  0  0  0  0  0  0  0  0  0  0
   32.6040    0.1680   51.0780 C   0  0  0  0  0  0  0  0  0  0  0  0
   32.5520   -3.9290   48.4200 C   0  0  0  0  0  0  0  0  0  0  0  0
   32.1310   -4.4700   47.3610 O   0  0  0  0  0  0  0  0  0  0  0  0
   33.6440   -4.4740   49.0880 O   0  0  0  0  0  0  0  0  0  0  0  0
   31.0810   -2.2880   50.8320 H   0  0  0  0  0  0  0  0  0  0  0  0
   30.1620   -3.3710   49.9320 H   0  0  0  0  0  0  0  0  0  0  0  0
   31.1499   -2.3399   48.2314 H   0  0  0  0  0  0  0  0  0  0  0  0
   33.6099   -1.9471   49.9983 H   0  0  0  0  0  0  0  0  0  0  0  0
   33.3397   -1.2926   48.3295 H   0  0  0  0  0  0  0  0  0  0  0  0
   30.7299   -0.2149   48.2396 H   0  0  0  0  0  0  0  0  0  0  0  0
   29.5706    1.7615   49.2231 H   0  0  0  0  0  0  0  0  0  0  0  0
   30.4560    3.2940   52.3950 H   0  0  0  0  0  0  0  0  0  0  0  0
   32.2921    1.6935   52.5866 H   0  0  0  0  0  0  0  0  0  0  0  0
   33.4564   -0.2833   51.6070 H   0  0  0  0  0  0  0  0  0  0  0  0
   33.5060   -5.1670   49.7810 H   0  0  0  0  0  0  0  0  0  0  0  0
  1  2  1  0
  2  3  1  0
  3  4  1  0
  4  5  2  0
  5  6  1  0
  6  7  2  0
  7  8  1  0
  7  9  1  0
  9 10  2  0
  2 11  1  0
 11 12  2  0
 11 13  1  0
 10  4  1  0
  1 14  1  0
  1 15  1  0
  2 16  1  6
  3 17  1  0
  3 18  1  0
  5 19  1  0
  6 20  1  0
  8 21  1  0
  9 22  1  0
 10 23  1  0
 13 24  1  0
M  END
$$$$

     RDKit          3D

 24 24  0  0  0  0  0  0  0  0999 V2000
   33.6740   -4.2240   48.8360 N   0  0  0  0  0  0  0  0  0  0  0  0
   32.6270   -3.3840   49.4190 C   0  0  1  0  0  0  0  0  0  0  0  0
   32.2820   -2.2030   48.4870 C   0  0  0  0  0  0  0  0  0  0  0  0
   31.8470   -0.9870   49.2660 C   0  0  0  0  0  0  0  0  0  0  0  0
   32.4670   -0.6630   50.4850 C   0  0  0  0  0  0  0  0  0  0  0  0
   32.0830    0.4820   51.1880 C   0  0  0  0  0  0  0  0  0  0  0  0
   31.0850    1.3190   50.6810 C   0  0  0  0  0  0  0  0  0  0  0  0
   30.7130    2.4580   51.3930 O   0  0  0  0  0  0  0  0  0  0  0  0
   30.4690    1.0060   49.4610 C   0  0  0  0  0  0  0  0  0  0  0  0
   30.8510   -0.1390   48.7550 C   0  0  0  0  0  0  0  0  0  0  0  0
   31.4130   -4.2210   49.7140 C   0  0  0  0  0  0  0  0  0  0  0  0
   31.3270   -5.3980   49.2690 O   0  0  0  0  0  0  0  0  0  0  0  0
   30.3650   -3.6830   50.4540 O   0  0  0  0  0  0  0  0  0  0  0  0
   34.4920   -4.2410   49.4630 H   0  0  0  0  0  0  0  0  0  0  0  0
   33.3170   -5.1830   48.7140 H   0  0  0  0  0  0  0  0  0  0  0  0
   32.9963   -2.9561   50.3627 H   0  0  0  0  0  0  0  0  0  0  0  0
   33.1712   -1.9463   47.8925 H   0  0  0  0  0  0  0  0  0  0  0  0
   31.4492   -2.5104   47.8374 H   0  0  0  0  0  0  0  0  0  0  0  0
   33.2577   -1.3134   50.8873 H   0  0  0  0  0  0  0  0  0  0  0  0
   32.5683    0.7257   52.1446 H   0  0  0  0  0  0  0  0  0  0  0  0
   30.3150    3.2290   50.9180 H   0  0  0  0  0  0  0  0  0  0  0  0
   29.6836    1.6625   49.0584 H   0  0  0  0  0  0  0  0  0  0  0  0
   30.3692   -0.3766   47.7951 H   0  0  0  0  0  0  0  0  0  0  0  0
   30.2670   -2.7020   50.5340 H   0  0  0  0  0  0  0  0  0  0  0  0
  1  2  1  0
  2  3  1  0
  3  4  1  0
  4  5  2  0
  5  6  1  0
  6  7  2  0
  7  8  1  0
  7  9  1  0
  9 10  2  0
  2 11  1  0
 11 12  2  0
 11 13  1  0
 10  4  1  0
  1 14  1  0
  1 15  1  0
  2 16  1  1
  3 17  1  0
  3 18  1  0
  5 19  1  0
  6 20  1  0
  8 21  1  0
  9 22  1  0
 10 23  1  0
 13 24  1  0
M  END
$$$$

     RDKit          3D

 24 24  0  0  0  0  0  0  0  0999 V2000
   32.1250   -0.1750   51.8600 N   0  0  0  0  0  0  0  0  0  0  0  0
   32.1440    1.0200   51.0150 C   0  0  1  0  0  0  0  0  0  0  0  0
   31.3740    0.7800   49.6990 C   0  0  0  0  0  0  0  0  0  0  0  0
   31.5880   -0.6180   49.1760 C   0  0  0  0  0  0  0  0  0  0  0  0
   32.8370   -1.2460   49.3120 C   0  0  0  0  0  0  0  0  0  0  0  0
   33.0230   -2.5530   48.8540 C   0  0  0  0  0  0  0  0  0  0  0  0
   31.9640   -3.2490   48.2640 C   0  0  0  0  0  0  0  0  0  0  0  0
   32.1630   -4.5530   47.8130 O   0  0  0  0  0  0  0  0  0  0  0  0
   30.7120   -2.6320   48.1340 C   0  0  0  0  0  0  0  0  0  0  0  0
   30.5240   -1.3240   48.5900 C   0  0  0  0  0  0  0  0  0  0  0  0
   31.5750    2.1860   51.7760 C   0  0  0  0  0  0  0  0  0  0  0  0
   32.2140    2.6920   52.7390 O   0  0  0  0  0  0  0  0  0  0  0  0
   30.3240    2.6900   51.4360 O   0  0  0  0  0  0  0  0  0  0  0  0
   31.4740   -0.0300   52.6460 H   0  0  0  0  0  0  0  0  0  0  0  0
   31.8140   -0.9840   51.3030 H   0  0  0  0  0  0  0  0  0  0  0  0
   33.1853    1.2501   50.7452 H   0  0  0  0  0  0  0  0  0  0  0  0
   30.2999    0.9321   49.8813 H   0  0  0  0  0  0  0  0  0  0  0  0
   31.7499    1.4893   48.9469 H   0  0  0  0  0  0  0  0  0  0  0  0
   33.6728   -0.7063   49.7813 H   0  0  0  0  0  0  0  0  0  0  0  0
   34.0059   -3.0357   48.9581 H   0  0  0  0  0  0  0  0  0  0  0  0
   31.4430   -5.0220   47.3220 H   0  0  0  0  0  0  0  0  0  0  0  0
   29.8761   -3.1780   47.6724 H   0  0  0  0  0  0  0  0  0  0  0  0
   29.5387   -0.8454   48.4896 H   0  0  0  0  0  0  0  0  0  0  0  0
   30.0080    3.5410   51.8300 H   0  0  0  0  0  0  0  0  0  0  0  0
  1  2  1  0
  2  3  1  0
  3  4  1  0
  4  5  2  0
  5  6  1  0
  6  7  2  0
  7  8  1  0
  7  9  1  0
  9 10  2  0
  2 11  1  0
 11 12  2  0
 11 13  1  0
 10  4  1  0
  1 14  1  0
  1 15  1  0
  2 16  1  6
  3 17  1  0
  3 18  1  0
  5 19  1  0
  6 20  1  0
  8 21  1  0
  9 22  1  0
 10 23  1  0
 13 24  1  0
M  END
$$$$

     RDKit          3D

 24 24  0  0  0  0  0  0  0  0999 V2000
   30.0050    2.6090   51.1360 N   0  0  0  0  0  0  0  0  0  0  0  0
   30.8300    1.4090   50.9900 C   0  0  1  0  0  0  0  0  0  0  0  0
   31.4400    1.3250   49.5740 C   0  0  0  0  0  0  0  0  0  0  0  0
   31.6500   -0.1050   49.1420 C   0  0  0  0  0  0  0  0  0  0  0  0
   32.9290   -0.6830   49.1920 C   0  0  0  0  0  0  0  0  0  0  0  0
   33.1140   -2.0180   48.8210 C   0  0  0  0  0  0  0  0  0  0  0  0
   32.0260   -2.7900   48.4040 C   0  0  0  0  0  0  0  0  0  0  0  0
   32.2260   -4.1200   48.0380 O   0  0  0  0  0  0  0  0  0  0  0  0
   30.7460   -2.2220   48.3610 C   0  0  0  0  0  0  0  0  0  0  0  0
   30.5570   -0.8870   48.7310 C   0  0  0  0  0  0  0  0  0  0  0  0
   31.9000    1.3990   52.0470 C   0  0  0  0  0  0  0  0  0  0  0  0
   32.5530    0.3460   52.2840 O   0  0  0  0  0  0  0  0  0  0  0  0
   32.1500    2.5490   52.7890 O   0  0  0  0  0  0  0  0  0  0  0  0
   30.4640    3.4020   50.6640 H   0  0  0  0  0  0  0  0  0  0  0  0
   29.0820    2.4440   50.7100 H   0  0  0  0  0  0  0  0  0  0  0  0
   30.1949    0.5209   51.1240 H   0  0  0  0  0  0  0  0  0  0  0  0
   30.7596    1.8162   48.8628 H   0  0  0  0  0  0  0  0  0  0  0  0
   32.4193    1.8256   49.5918 H   0  0  0  0  0  0  0  0  0  0  0  0
   33.7887   -0.0827   49.5245 H   0  0  0  0  0  0  0  0  0  0  0  0
   34.1195   -2.4626   48.8574 H   0  0  0  0  0  0  0  0  0  0  0  0
   32.5380   -4.7760   48.7090 H   0  0  0  0  0  0  0  0  0  0  0  0
   29.8876   -2.8279   48.0353 H   0  0  0  0  0  0  0  0  0  0  0  0
   29.5492   -0.4472   48.7003 H   0  0  0  0  0  0  0  0  0  0  0  0
   32.0750    3.4400   52.3640 H   0  0  0  0  0  0  0  0  0  0  0  0
  1  2  1  0
  2  3  1  0
  3  4  1  0
  4  5  2  0
  5  6  1  0
  6  7  2  0
  7  8  1  0
  7  9  1  0
  9 10  2  0
  2 11  1  0
 11 12  2  0
 11 13  1  0
 10  4  1  0
  1 14  1  0
  1 15  1  0
  2 16  1  1
  3 17  1  0
  3 18  1  0
  5 19  1  0
  6 20  1  0
  8 21  1  0
  9 22  1  0
 10 23  1  0
 13 24  1  0
M  END
$$$$

     RDKit          3D

 24 24  0  0  0  0  0  0  0  0999 V2000
   29.9360    1.5510   48.8250 N   0  0  0  0  0  0  0  0  0  0  0  0
   30.7200    0.8400   49.8360 C   0  0  1  0  0  0  0  0  0  0  0  0
   31.9820    0.2050   49.2130 C   0  0  0  0  0  0  0  0  0  0  0  0
   31.8860   -1.2990   49.1690 C   0  0  0  0  0  0  0  0  0  0  0  0
   33.0480   -2.0880   49.1860 C   0  0  0  0  0  0  0  0  0  0  0  0
   32.9550   -3.4820   49.1790 C   0  0  0  0  0  0  0  0  0  0  0  0
   31.7030   -4.1030   49.1620 C   0  0  0  0  0  0  0  0  0  0  0  0
   31.6250   -5.4950   49.1540 O   0  0  0  0  0  0  0  0  0  0  0  0
   30.5390   -3.3220   49.1540 C   0  0  0  0  0  0  0  0  0  0  0  0
   30.6290   -1.9280   49.1610 C   0  0  0  0  0  0  0  0  0  0  0  0
   31.0780    1.7820   50.9520 C   0  0  0  0  0  0  0  0  0  0  0  0
   32.2310    1.7570   51.4630 O   0  0  0  0  0  0  0  0  0  0  0  0
   30.1220    2.6630   51.4460 O   0  0  0  0  0  0  0  0  0  0  0  0
   30.3010    1.3290   47.8870 H   0  0  0  0  0  0  0  0  0  0  0  0
   28.9500    1.2560   48.8870 H   0  0  0  0  0  0  0  0  0  0  0  0
   30.1124    0.0206   50.2475 H   0  0  0  0  0  0  0  0  0  0  0  0
   32.1029    0.5846   48.1877 H   0  0  0  0  0  0  0  0  0  0  0  0
   32.8459    0.4752   49.8380 H   0  0  0  0  0  0  0  0  0  0  0  0
   34.0365   -1.6058   49.2049 H   0  0  0  0  0  0  0  0  0  0  0  0
   33.8699   -4.0926   49.1869 H   0  0  0  0  0  0  0  0  0  0  0  0
   32.4440   -6.0370   49.2710 H   0  0  0  0  0  0  0  0  0  0  0  0
   29.5523   -3.8080   49.1422 H   0  0  0  0  0  0  0  0  0  0  0  0
   29.7123   -1.3200   49.1602 H   0  0  0  0  0  0  0  0  0  0  0  0
   29.9810    3.5390   51.0070 H   0  0  0  0  0  0  0  0  0  0  0  0
  1  2  1  0
  2  3  1  0
  3  4  1  0
  4  5  2  0
  5  6  1  0
  6  7  2  0
  7  8  1  0
  7  9  1  0
  9 10  2  0
  2 11  1  0
 11 12  2  0
 11 13  1  0
 10  4  1  0
  1 14  1  0
  1 15  1  0
  2 16  1  1
  3 17  1  0
  3 18  1  0
  5 19  1  0
  6 20  1  0
  8 21  1  0
  9 22  1  0
 10 23  1  0
 13 24  1  0
M  END
$$$$

     RDKit          3D

 24 24  0  0  0  0  0  0  0  0999 V2000
   32.2920   -0.3680   51.7360 N   0  0  0  0  0  0  0  0  0  0  0  0
   32.2870    0.6820   50.7160 C   0  0  1  0  0  0  0  0  0  0  0  0
   32.5040    0.0880   49.3080 C   0  0  0  0  0  0  0  0  0  0  0  0
   32.2240   -1.3940   49.2790 C   0  0  0  0  0  0  0  0  0  0  0  0
   30.9020   -1.8680   49.2520 C   0  0  0  0  0  0  0  0  0  0  0  0
   30.6460   -3.2400   49.1930 C   0  0  0  0  0  0  0  0  0  0  0  0
   31.7040   -4.1530   49.1530 C   0  0  0  0  0  0  0  0  0  0  0  0
   31.4340   -5.5180   49.0930 O   0  0  0  0  0  0  0  0  0  0  0  0
   33.0260   -3.6860   49.1700 C   0  0  0  0  0  0  0  0  0  0  0  0
   33.2850   -2.3130   49.2300 C   0  0  0  0  0  0  0  0  0  0  0  0
   30.9970    1.4510   50.7910 C   0  0  0  0  0  0  0  0  0  0  0  0
   30.1860    1.4330   49.8240 O   0  0  0  0  0  0  0  0  0  0  0  0
   30.7100    2.2140   51.9180 O   0  0  0  0  0  0  0  0  0  0  0  0
   32.3110    0.0620   52.6720 H   0  0  0  0  0  0  0  0  0  0  0  0
   31.4430   -0.9440   51.6400 H   0  0  0  0  0  0  0  0  0  0  0  0
   33.1213    1.3723   50.9095 H   0  0  0  0  0  0  0  0  0  0  0  0
   31.8294    0.5922   48.6004 H   0  0  0  0  0  0  0  0  0  0  0  0
   33.5564    0.2439   49.0283 H   0  0  0  0  0  0  0  0  0  0  0  0
   30.0644   -1.1555   49.2774 H   0  0  0  0  0  0  0  0  0  0  0  0
   29.6079   -3.6034   49.1780 H   0  0  0  0  0  0  0  0  0  0  0  0
   30.5400   -5.8570   49.3460 H   0  0  0  0  0  0  0  0  0  0  0  0
   33.8612   -4.4011   49.1361 H   0  0  0  0  0  0  0  0  0  0  0  0
   34.3238   -1.9514   49.2389 H   0  0  0  0  0  0  0  0  0  0  0  0
   31.3930    2.3290   52.6260 H   0  0  0  0  0  0  0  0  0  0  0  0
  1  2  1  0
  2  3  1  0
  3  4  1  0
  4  5  2  0
  5  6  1  0
  6  7  2  0
  7  8  1  0
  7  9  1  0
  9 10  2  0
  2 11  1  0
 11 12  2  0
 11 13  1  0
 10  4  1  0
  1 14  1  0
  1 15  1  0
  2 16  1  1
  3 17  1  0
  3 18  1  0
  5 19  1  0
  6 20  1  0
  8 21  1  0
  9 22  1  0
 10 23  1  0
 13 24  1  0
M  END
$$$$

     RDKit          3D

 24 24  0  0  0  0  0  0  0  0999 V2000
   23.2860    7.8390   41.2930 N   0  0  0  0  0  0  0  0  0  0  0  0
   23.1210    9.2910   41.2090 C   0  0  1  0  0  0  0  0  0  0  0  0
   23.4550    9.8050   39.7920 C   0  0  0  0  0  0  0  0  0  0  0  0
   24.8810    9.4960   39.4100 C   0  0  0  0  0  0  0  0  0  0  0  0
   25.9460    9.9540   40.2030 C   0  0  0  0  0  0  0  0  0  0  0  0
   27.2650    9.6390   39.8630 C   0  0  0  0  0  0  0  0  0  0  0  0
   27.5330    8.8590   38.7340 C   0  0  0  0  0  0  0  0  0  0  0  0
   28.8530    8.5520   38.4080 O   0  0  0  0  0  0  0  0  0  0  0  0
   26.4750    8.3920   37.9440 C   0  0  0  0  0  0  0  0  0  0  0  0
   25.1550    8.7050   38.2810 C   0  0  0  0  0  0  0  0  0  0  0  0
   21.7200    9.6640   41.6090 C   0  0  0  0  0  0  0  0  0  0  0  0
   20.9910    8.8380   42.2250 O   0  0  0  0  0  0  0  0  0  0  0  0
   21.2140   10.9150   41.2710 O   0  0  0  0  0  0  0  0  0  0  0  0
   24.1590    7.5630   40.8190 H   0  0  0  0  0  0  0  0  0  0  0  0
   23.3300    7.5550   42.2830 H   0  0  0  0  0  0  0  0  0  0  0  0
   23.8253    9.7715   41.9040 H   0  0  0  0  0  0  0  0  0  0  0  0
   22.7797    9.3235   39.0694 H   0  0  0  0  0  0  0  0  0  0  0  0
   23.3260   10.8974   39.7834 H   0  0  0  0  0  0  0  0  0  0  0  0
   25.7413   10.5633   41.0957 H   0  0  0  0  0  0  0  0  0  0  0  0
   28.0944   10.0059   40.4855 H   0  0  0  0  0  0  0  0  0  0  0  0
   29.3950    7.9910   39.0160 H   0  0  0  0  0  0  0  0  0  0  0  0
   26.6834    7.7772   37.0559 H   0  0  0  0  0  0  0  0  0  0  0  0
   24.3276    8.3308   37.6602 H   0  0  0  0  0  0  0  0  0  0  0  0
   20.8030   11.4880   41.9650 H   0  0  0  0  0  0  0  0  0  0  0  0
  1  2  1  0
  2  3  1  0
  3  4  1  0
  4  5  2  0
  5  6  1  0
  6  7  2  0
  7  8  1  0
  7  9  1  0
  9 10  2  0
  2 11  1  0
 11 12  2  0
 11 13  1  0
 10  4  1  0
  1 14  1  0
  1 15  1  0
  2 16  1  1
  3 17  1  0
  3 18  1  0
  5 19  1  0
  6 20  1  0
  8 21  1  0
  9 22  1  0
 10 23  1  0
 13 24  1  0
M  END
$$$$

     RDKit          3D

 24 24  0  0  0  0  0  0  0  0999 V2000
   23.2920    7.8580   41.4480 N   0  0  0  0  0  0  0  0  0  0  0  0
   23.1080    9.3010   41.2860 C   0  0  1  0  0  0  0  0  0  0  0  0
   23.4090    9.7380   39.8360 C   0  0  0  0  0  0  0  0  0  0  0  0
   24.8320    9.4290   39.4450 C   0  0  0  0  0  0  0  0  0  0  0  0
   25.1050    8.6340   38.3190 C   0  0  0  0  0  0  0  0  0  0  0  0
   26.4260    8.3770   37.9410 C   0  0  0  0  0  0  0  0  0  0  0  0
   27.4860    8.9150   38.6760 C   0  0  0  0  0  0  0  0  0  0  0  0
   28.7980    8.6500   38.2870 O   0  0  0  0  0  0  0  0  0  0  0  0
   27.2210    9.7150   39.7950 C   0  0  0  0  0  0  0  0  0  0  0  0
   25.9010    9.9740   40.1760 C   0  0  0  0  0  0  0  0  0  0  0  0
   21.7120    9.6820   41.6920 C   0  0  0  0  0  0  0  0  0  0  0  0
   20.9770    8.8560   42.3010 O   0  0  0  0  0  0  0  0  0  0  0  0
   21.2150   10.9400   41.3670 O   0  0  0  0  0  0  0  0  0  0  0  0
   24.2720    7.6620   41.6970 H   0  0  0  0  0  0  0  0  0  0  0  0
   22.6730    7.5160   42.1980 H   0  0  0  0  0  0  0  0  0  0  0  0
   23.8198    9.8269   41.9393 H   0  0  0  0  0  0  0  0  0  0  0  0
   22.7285    9.2062   39.1548 H   0  0  0  0  0  0  0  0  0  0  0  0
   23.2631   10.8262   39.7683 H   0  0  0  0  0  0  0  0  0  0  0  0
   24.2756    8.2121   37.7324 H   0  0  0  0  0  0  0  0  0  0  0  0
   26.6320    7.7489   37.0617 H   0  0  0  0  0  0  0  0  0  0  0  0
   29.1220    8.9530   37.4030 H   0  0  0  0  0  0  0  0  0  0  0  0
   28.0532   10.1403   40.3751 H   0  0  0  0  0  0  0  0  0  0  0  0
   25.6984   10.6074   41.0522 H   0  0  0  0  0  0  0  0  0  0  0  0
   20.4870   11.3400   41.9050 H   0  0  0  0  0  0  0  0  0  0  0  0
  1  2  1  0
  2  3  1  0
  3  4  1  0
  4  5  2  0
  5  6  1  0
  6  7  2  0
  7  8  1  0
  7  9  1  0
  9 10  2  0
  2 11  1  0
 11 12  2  0
 11 13  1  0
 10  4  1  0
  1 14  1  0
  1 15  1  0
  2 16  1  1
  3 17  1  0
  3 18  1  0
  5 19  1  0
  6 20  1  0
  8 21  1  0
  9 22  1  0
 10 23  1  0
 13 24  1  0
M  END
$$$$

     RDKit          3D

 24 24  0  0  0  0  0  0  0  0999 V2000
   20.2480    7.8870   41.7590 N   0  0  0  0  0  0  0  0  0  0  0  0
   21.1770    8.6310   42.6110 C   0  0  1  0  0  0  0  0  0  0  0  0
   21.7260    9.8740   41.8780 C   0  0  0  0  0  0  0  0  0  0  0  0
   23.1160    9.6370   41.3430 C   0  0  0  0  0  0  0  0  0  0  0  0
   23.3830    9.7720   39.9700 C   0  0  0  0  0  0  0  0  0  0  0  0
   24.6790    9.5830   39.4830 C   0  0  0  0  0  0  0  0  0  0  0  0
   25.7210    9.2650   40.3580 C   0  0  0  0  0  0  0  0  0  0  0  0
   27.0080    9.0790   39.8580 O   0  0  0  0  0  0  0  0  0  0  0  0
   25.4630    9.1370   41.7300 C   0  0  0  0  0  0  0  0  0  0  0  0
   24.1680    9.3260   42.2210 C   0  0  0  0  0  0  0  0  0  0  0  0
   20.4910    9.0130   43.8940 C   0  0  0  0  0  0  0  0  0  0  0  0
   20.3650    8.1700   44.8250 O   0  0  0  0  0  0  0  0  0  0  0  0
   19.9640   10.2910   44.0430 O   0  0  0  0  0  0  0  0  0  0  0  0
   19.7140    8.5460   41.1740 H   0  0  0  0  0  0  0  0  0  0  0  0
   20.7780    7.2440   41.1540 H   0  0  0  0  0  0  0  0  0  0  0  0
   22.0364    7.9871   42.8494 H   0  0  0  0  0  0  0  0  0  0  0  0
   21.0576   10.1172   41.0389 H   0  0  0  0  0  0  0  0  0  0  0  0
   21.7725   10.7042   42.5981 H   0  0  0  0  0  0  0  0  0  0  0  0
   22.5687   10.0274   39.2760 H   0  0  0  0  0  0  0  0  0  0  0  0
   24.8798    9.6850   38.4063 H   0  0  0  0  0  0  0  0  0  0  0  0
   27.2280    9.3720   38.9380 H   0  0  0  0  0  0  0  0  0  0  0  0
   26.2812    8.8873   42.4215 H   0  0  0  0  0  0  0  0  0  0  0  0
   23.9717    9.2309   43.2991 H   0  0  0  0  0  0  0  0  0  0  0  0
   19.9840   10.7360   44.9280 H   0  0  0  0  0  0  0  0  0  0  0  0
  1  2  1  0
  2  3  1  0
  3  4  1  0
  4  5  2  0
  5  6  1  0
  6  7  2  0
  7  8  1  0
  7  9  1  0
  9 10  2  0
  2 11  1  0
 11 12  2  0
 11 13  1  0
 10  4  1  0
  1 14  1  0
  1 15  1  0
  2 16  1  1
  3 17  1  0
  3 18  1  0
  5 19  1  0
  6 20  1  0
  8 21  1  0
  9 22  1  0
 10 23  1  0
 13 24  1  0
M  END
$$$$

     RDKit          3D

 24 24  0  0  0  0  0  0  0  0999 V2000
   25.5230   10.8880   40.2480 N   0  0  0  0  0  0  0  0  0  0  0  0
   25.8060    9.4520   40.2370 C   0  0  1  0  0  0  0  0  0  0  0  0
   24.5090    8.6320   40.0720 C   0  0  0  0  0  0  0  0  0  0  0  0
   23.4600    9.0420   41.0740 C   0  0  0  0  0  0  0  0  0  0  0  0
   22.3150    9.7440   40.6600 C   0  0  0  0  0  0  0  0  0  0  0  0
   21.3290   10.0950   41.5870 C   0  0  0  0  0  0  0  0  0  0  0  0
   21.4700    9.7420   42.9320 C   0  0  0  0  0  0  0  0  0  0  0  0
   20.4790   10.0980   43.8450 O   0  0  0  0  0  0  0  0  0  0  0  0
   22.6050    9.0330   43.3500 C   0  0  0  0  0  0  0  0  0  0  0  0
   23.5930    8.6820   42.4260 C   0  0  0  0  0  0  0  0  0  0  0  0
   26.7920    9.1400   39.1450 C   0  0  0  0  0  0  0  0  0  0  0  0
   26.5070    8.2980   38.2500 O   0  0  0  0  0  0  0  0  0  0  0  0
   28.0380    9.7590   39.1400 O   0  0  0  0  0  0  0  0  0  0  0  0
   25.5570   11.2530   39.2850 H   0  0  0  0  0  0  0  0  0  0  0  0
   24.5850   11.0490   40.6430 H   0  0  0  0  0  0  0  0  0  0  0  0
   26.2486    9.1683   41.2032 H   0  0  0  0  0  0  0  0  0  0  0  0
   24.1141    8.7895   39.0575 H   0  0  0  0  0  0  0  0  0  0  0  0
   24.7492    7.5719   40.2408 H   0  0  0  0  0  0  0  0  0  0  0  0
   22.1940   10.0186   39.6017 H   0  0  0  0  0  0  0  0  0  0  0  0
   20.4392   10.6509   41.2566 H   0  0  0  0  0  0  0  0  0  0  0  0
   20.2860   11.0530   44.0180 H   0  0  0  0  0  0  0  0  0  0  0  0
   22.7181    8.7524   44.4076 H   0  0  0  0  0  0  0  0  0  0  0  0
   24.4790    8.1213   42.7585 H   0  0  0  0  0  0  0  0  0  0  0  0
   28.2700   10.4130   39.8460 H   0  0  0  0  0  0  0  0  0  0  0  0
  1  2  1  0
  2  3  1  0
  3  4  1  0
  4  5  2  0
  5  6  1  0
  6  7  2  0
  7  8  1  0
  7  9  1  0
  9 10  2  0
  2 11  1  0
 11 12  2  0
 11 13  1  0
 10  4  1  0
  1 14  1  0
  1 15  1  0
  2 16  1  1
  3 17  1  0
  3 18  1  0
  5 19  1  0
  6 20  1  0
  8 21  1  0
  9 22  1  0
 10 23  1  0
 13 24  1  0
M  END
$$$$

     RDKit          3D

 24 24  0  0  0  0  0  0  0  0999 V2000
   23.3400    9.4780   39.7420 N   0  0  0  0  0  0  0  0  0  0  0  0
   24.6590    9.6950   40.3380 C   0  0  1  0  0  0  0  0  0  0  0  0
   24.8470    8.8220   41.5970 C   0  0  0  0  0  0  0  0  0  0  0  0
   23.5730    8.7130   42.3960 C   0  0  0  0  0  0  0  0  0  0  0  0
   22.8440    7.5120   42.4140 C   0  0  0  0  0  0  0  0  0  0  0  0
   21.6810    7.4040   43.1810 C   0  0  0  0  0  0  0  0  0  0  0  0
   21.2370    8.4890   43.9420 C   0  0  0  0  0  0  0  0  0  0  0  0
   20.0750    8.3680   44.7020 O   0  0  0  0  0  0  0  0  0  0  0  0
   21.9640    9.6880   43.9360 C   0  0  0  0  0  0  0  0  0  0  0  0
   23.1280    9.7980   43.1700 C   0  0  0  0  0  0  0  0  0  0  0  0
   25.7270    9.4170   39.3170 C   0  0  0  0  0  0  0  0  0  0  0  0
   26.8860    9.8950   39.4600 O   0  0  0  0  0  0  0  0  0  0  0  0
   25.4270    8.6560   38.1910 O   0  0  0  0  0  0  0  0  0  0  0  0
   23.4430    9.3050   38.7310 H   0  0  0  0  0  0  0  0  0  0  0  0
   22.8930    8.6620   40.1840 H   0  0  0  0  0  0  0  0  0  0  0  0
   24.7397   10.7454   40.6544 H   0  0  0  0  0  0  0  0  0  0  0  0
   25.1613    7.8141   41.2881 H   0  0  0  0  0  0  0  0  0  0  0  0
   25.6101    9.2960   42.2318 H   0  0  0  0  0  0  0  0  0  0  0  0
   23.1905    6.6525   41.8214 H   0  0  0  0  0  0  0  0  0  0  0  0
   21.1130    6.4620   43.1859 H   0  0  0  0  0  0  0  0  0  0  0  0
   19.9820    8.8740   45.5480 H   0  0  0  0  0  0  0  0  0  0  0  0
   21.6178   10.5432   44.5350 H   0  0  0  0  0  0  0  0  0  0  0  0
   23.6984   10.7385   43.1731 H   0  0  0  0  0  0  0  0  0  0  0  0
   24.4900    8.4020   38.0000 H   0  0  0  0  0  0  0  0  0  0  0  0
  1  2  1  0
  2  3  1  0
  3  4  1  0
  4  5  2  0
  5  6  1  0
  6  7  2  0
  7  8  1  0
  7  9  1  0
  9 10  2  0
  2 11  1  0
 11 12  2  0
 11 13  1  0
 10  4  1  0
  1 14  1  0
  1 15  1  0
  2 16  1  1
  3 17  1  0
  3 18  1  0
  5 19  1  0
  6 20  1  0
  8 21  1  0
  9 22  1  0
 10 23  1  0
 13 24  1  0
M  END
$$$$

     RDKit          3D

 24 24  0  0  0  0  0  0  0  0999 V2000
   20.5540   10.2080   43.3230 N   0  0  0  0  0  0  0  0  0  0  0  0
   21.4610    9.4370   42.4710 C   0  0  1  0  0  0  0  0  0  0  0  0
   22.9100    9.5070   42.9980 C   0  0  0  0  0  0  0  0  0  0  0  0
   23.9150    9.4660   41.8740 C   0  0  0  0  0  0  0  0  0  0  0  0
   25.2880    9.3600   42.1500 C   0  0  0  0  0  0  0  0  0  0  0  0
   26.2140    9.2900   41.1050 C   0  0  0  0  0  0  0  0  0  0  0  0
   25.7800    9.3170   39.7770 C   0  0  0  0  0  0  0  0  0  0  0  0
   26.7140    9.2460   38.7450 O   0  0  0  0  0  0  0  0  0  0  0  0
   24.4100    9.4140   39.4950 C   0  0  0  0  0  0  0  0  0  0  0  0
   23.4820    9.4850   40.5370 C   0  0  0  0  0  0  0  0  0  0  0  0
   20.9820    8.0150   42.3790 C   0  0  0  0  0  0  0  0  0  0  0  0
   21.5710    7.1010   43.0200 O   0  0  0  0  0  0  0  0  0  0  0  0
   19.9030    7.6990   41.5600 O   0  0  0  0  0  0  0  0  0  0  0  0
   19.8140   10.6310   42.7440 H   0  0  0  0  0  0  0  0  0  0  0  0
   20.1270    9.5830   44.0220 H   0  0  0  0  0  0  0  0  0  0  0  0
   21.4603    9.8746   41.4618 H   0  0  0  0  0  0  0  0  0  0  0  0
   23.0405   10.4442   43.5588 H   0  0  0  0  0  0  0  0  0  0  0  0
   23.0824    8.6337   43.6442 H   0  0  0  0  0  0  0  0  0  0  0  0
   25.6363    9.3319   43.1930 H   0  0  0  0  0  0  0  0  0  0  0  0
   27.2882    9.2134   41.3290 H   0  0  0  0  0  0  0  0  0  0  0  0
   26.4360    9.4250   37.8120 H   0  0  0  0  0  0  0  0  0  0  0  0
   24.0649    9.4343   38.4507 H   0  0  0  0  0  0  0  0  0  0  0  0
   22.4080    9.5561   40.3101 H   0  0  0  0  0  0  0  0  0  0  0  0
   20.0460    7.1760   40.7320 H   0  0  0  0  0  0  0  0  0  0  0  0
  1  2  1  0
  2  3  1  0
  3  4  1  0
  4  5  2  0
  5  6  1  0
  6  7  2  0
  7  8  1  0
  7  9  1  0
  9 10  2  0
  2 11  1  0
 11 12  2  0
 11 13  1  0
 10  4  1  0
  1 14  1  0
  1 15  1  0
  2 16  1  6
  3 17  1  0
  3 18  1  0
  5 19  1  0
  6 20  1  0
  8 21  1  0
  9 22  1  0
 10 23  1  0
 13 24  1  0
M  END
$$$$

     RDKit          3D

 24 24  0  0  0  0  0  0  0  0999 V2000
   36.3200  -11.2470   45.8030 N   0  0  0  0  0  0  0  0  0  0  0  0
   37.4510  -10.5720   45.1640 C   0  0  1  0  0  0  0  0  0  0  0  0
   38.7550  -11.3770   45.3510 C   0  0  0  0  0  0  0  0  0  0  0  0
   39.4000  -11.0900   46.6840 C   0  0  0  0  0  0  0  0  0  0  0  0
   40.0410   -9.8610   46.9140 C   0  0  0  0  0  0  0  0  0  0  0  0
   40.6100   -9.5860   48.1610 C   0  0  0  0  0  0  0  0  0  0  0  0
   40.5400  -10.5290   49.1910 C   0  0  0  0  0  0  0  0  0  0  0  0
   41.1120  -10.2410   50.4280 O   0  0  0  0  0  0  0  0  0  0  0  0
   39.8940  -11.7530   48.9700 C   0  0  0  0  0  0  0  0  0  0  0  0
   39.3240  -12.0310   47.7240 C   0  0  0  0  0  0  0  0  0  0  0  0
   37.1510  -10.3510   43.7070 C   0  0  0  0  0  0  0  0  0  0  0  0
   37.9150   -9.6400   42.9990 O   0  0  0  0  0  0  0  0  0  0  0  0
   36.0060  -10.9070   43.1450 O   0  0  0  0  0  0  0  0  0  0  0  0
   36.6490  -11.7540   46.6370 H   0  0  0  0  0  0  0  0  0  0  0  0
   35.6170  -10.5480   46.0820 H   0  0  0  0  0  0  0  0  0  0  0  0
   37.6001   -9.5941   45.6452 H   0  0  0  0  0  0  0  0  0  0  0  0
   38.5232  -12.4506   45.2906 H   0  0  0  0  0  0  0  0  0  0  0  0
   39.4580  -11.0810   44.5584 H   0  0  0  0  0  0  0  0  0  0  0  0
   40.0953   -9.1124   46.1099 H   0  0  0  0  0  0  0  0  0  0  0  0
   41.1148   -8.6239   48.3326 H   0  0  0  0  0  0  0  0  0  0  0  0
   41.9450   -9.7080   50.4760 H   0  0  0  0  0  0  0  0  0  0  0  0
   39.8353  -12.4965   49.7786 H   0  0  0  0  0  0  0  0  0  0  0  0
   38.8137  -12.9911   47.5574 H   0  0  0  0  0  0  0  0  0  0  0  0
   35.2950  -11.2740   43.7270 H   0  0  0  0  0  0  0  0  0  0  0  0
  1  2  1  0
  2  3  1  0
  3  4  1  0
  4  5  2  0
  5  6  1  0
  6  7  2  0
  7  8  1  0
  7  9  1  0
  9 10  2  0
  2 11  1  0
 11 12  2  0
 11 13  1  0
 10  4  1  0
  1 14  1  0
  1 15  1  0
  2 16  1  1
  3 17  1  0
  3 18  1  0
  5 19  1  0
  6 20  1  0
  8 21  1  0
  9 22  1  0
 10 23  1  0
 13 24  1  0
M  END
$$$$
