molecule_1
     RDKit          3D

 25 27  0  0  0  0  0  0  0  0999 V2000
   -2.5409    2.4031   -0.0310 C   0  0  1  0  0  0  0  0  0  0  0  0
   -3.0245    0.5668    1.6455 O   0  0  0  0  0  1  0  0  0  0  0  0
   -5.8750    3.9905    0.2583 O   0  0  0  0  0  1  0  0  0  0  0  0
   -1.8779    0.1346   -0.7145 C   0  0  0  0  0  2  0  0  0  0  0  0
    1.7163   -1.6438    0.1696 C   0  0  1  0  0  0  0  0  0  0  0  0
    2.5350   -2.7898   -0.6658 C   0  0  0  0  0  2  0  0  0  0  0  0
   -0.9015   -0.9986   -0.7232 O   0  0  0  0  0  0  0  0  0  0  0  0
    1.1326   -2.3807    1.8254 O   0  0  0  0  0  0  0  0  0  0  0  0
    1.0623   -2.7304    0.3983 C   0  0  0  0  0  2  0  0  0  0  0  0
   -0.4077   -0.7302    1.3205 O   0  0  0  0  0  0  0  0  0  0  0  0
    6.1996   -3.3094   -1.6729 O   0  0  0  0  0  1  0  0  0  0  0  0
    1.6325    1.3128    0.7074 C   0  0  0  0  0  2  0  0  0  0  0  0
    4.7274   -2.6341   -1.2947 C   0  0  0  0  0  3  0  0  0  0  0  0
   -5.1393    2.9386   -0.0655 C   0  0  0  0  0  0  0  0  0  0  0  0
    1.6243   -1.0197    2.0151 C   0  0  0  0  0  3  0  0  0  0  0  0
   -2.0440    1.0044    0.5276 C   0  0  0  0  0  3  0  0  0  0  0  0
    5.3601   -1.5871   -0.3406 O   0  0  0  0  0  1  0  0  0  0  0  0
    3.8329   -3.4166   -0.7966 C   0  0  0  0  0  2  0  0  0  0  0  0
   -4.0690    2.8129    0.5750 N   0  0  0  0  0  2  0  0  0  0  0  0
   -1.5233    3.3123    0.6611 C   0  0  0  0  0  1  0  0  0  0  0  0
    0.8304    2.4278    0.6071 O   0  0  0  0  0  1  0  0  0  0  0  0
   -2.6573    2.2928   -1.4147 C   0  0  0  0  0  1  0  0  0  0  0  0
   -5.7169    2.4034   -1.0558 O   0  0  0  0  0  0  0  0  0  0  0  0
    1.1777   -0.0361    1.2356 C   0  0  1  0  0  0  0  0  0  0  0  0
    0.3060   -0.8581    0.2662 C   0  0  1  0  0  0  0  0  0  0  0  0
  1 16  1  0
  1 19  1  0
  1 20  1  6
  4 16  1  0
  5  6  1  6
  5 25  1  0
  5  9  1  0
  5 15  1  0
  7  4  1  0
  9  8  1  0
 11 13  1  0
 13 18  1  0
 13 17  1  0
 14  3  1  0
 14 19  1  0
 15  8  1  0
 16  2  1  0
 18  6  1  0
 21 12  1  0
 22  1  1  0
 23 14  2  0
 24 12  1  6
 24 10  1  0
 24 15  1  0
 25  7  1  6
 25 24  1  0
 25 10  1  0
M  END
$$$$
molecule_2
     RDKit          3D

 26 27  0  0  1  0  0  0  0  0999 V2000
    1.8582   -3.5226    0.1853 C   0  0  0  0  0  3  0  0  0  0  0  0
    1.5248    1.0314    1.5789 C   0  0  0  0  0  2  0  0  0  0  0  0
    0.1647   -4.1796   -1.1709 F   0  0  0  0  0  0  0  0  0  0  0  0
   -4.1716    2.3832    0.9608 C   0  0  0  0  0  3  0  0  0  0  0  0
   -5.0817    2.5491   -0.0462 C   0  0  0  0  0  3  0  0  0  0  0  0
    3.3967   -2.7633    2.1926 O   0  0  0  0  0  1  0  0  0  0  0  0
    1.5219   -4.4332    1.3038 C   0  0  0  0  0  1  0  0  0  0  0  0
    1.1472   -0.1411    0.9127 C   0  0  0  0  0  3  0  0  0  0  0  0
    0.5335   -1.8303   -1.8485 O   0  0  0  0  0  0  0  0  0  0  0  0
   -4.6367    2.6703   -1.3631 C   0  0  0  0  0  3  0  0  0  0  0  0
    4.0711    2.1463    1.7777 C   0  0  0  0  0  1  0  0  0  0  0  0
   -2.4485    2.1358   -0.6409 C   0  0  0  0  0  0  0  0  0  0  0  0
    1.3471   -4.4298   -0.9549 C   0  0  0  0  0  2  0  0  0  0  0  0
   -2.6477    2.6995   -2.8346 O   0  0  0  0  0  1  0  0  0  0  0  0
    0.2582   -0.3750   -0.1168 C   0  0  0  0  0  3  0  0  0  0  0  0
    2.6270    2.1201   -0.2963 C   0  0  0  0  0  1  0  0  0  0  0  0
   -2.8306    2.2275    0.6784 C   0  0  0  0  0  3  0  0  0  0  0  0
    2.6492    2.0850    1.2008 C   0  0  0  0  0  3  0  0  0  0  0  0
   -1.1692    1.5694   -0.9516 C   0  0  0  0  0  0  0  0  0  0  0  0
    1.7668   -1.4248    1.1949 C   0  0  0  0  0  3  0  0  0  0  0  0
   -3.2483    2.5559   -1.6344 C   0  0  0  0  0  0  0  0  0  0  0  0
    0.7060   -1.5746   -0.6488 C   0  0  0  0  0  0  0  0  0  0  0  0
    1.4342   -2.2332    0.2115 N   0  0  0  0  0  0  0  0  0  0  0  0
    2.4738   -1.7525    2.4285 C   0  0  0  0  0  2  0  0  0  0  0  0
   -0.3997    2.2543   -1.6119 O   0  0  0  0  0  0  0  0  0  0  0  0
   -0.8836    0.2763   -0.4406 C   0  0  0  0  0  2  0  0  0  0  0  0
  1 23  1  0
  1  7  1  0
  3 13  1  0
  5  4  2  0
  6 24  1  0
  8 20  1  0
  8  2  1  0
  9 22  2  0
 10  5  1  0
 12 17  2  0
 13  1  1  0
 14 21  1  0
 15 26  1  0
 15  8  1  0
 16 18  1  0
 17  4  1  0
 18  2  1  0
 18 11  1  0
 19 12  1  0
 19 26  1  0
 20 24  1  0
 21 10  2  0
 21 12  1  0
 22 15  1  0
 22 23  1  0
 23 20  1  0
 25 19  2  0
M  END
$$$$
molecule_3
     RDKit          3D

 26 28  0  0  1  0  0  0  0  0999 V2000
    0.8441    2.0915    1.3924 C   0  0  0  0  0  3  0  0  0  0  0  0
   -3.6125    0.7639    0.7887 C   0  0  0  0  0  0  0  0  0  0  0  0
   -4.0387    2.9199   -0.8472 C   0  0  0  0  0  3  0  0  0  0  0  0
    0.9542   -2.4620   -1.4421 C   0  0  0  0  0  3  0  0  0  0  0  0
   -4.8908    1.0898    0.4550 C   0  0  0  0  0  3  0  0  0  0  0  0
   -0.6288    2.2326    1.5201 C   0  0  0  0  0  2  0  0  0  0  0  0
    3.3633   -2.5321    0.4402 C   0  0  0  0  0  0  0  0  0  0  0  0
    0.1869    0.3431   -1.6743 O   0  0  0  0  0  1  0  0  0  0  0  0
    1.7400   -3.5522   -1.8097 C   0  0  0  0  0  3  0  0  0  0  0  0
   -2.5831    1.4758    0.2924 C   0  0  0  0  0  0  0  0  0  0  0  0
    3.7898   -3.3452   -0.7073 C   0  0  0  0  0  0  0  0  0  0  0  0
    0.9630    0.8302   -0.6664 C   0  0  0  0  0  3  0  0  0  0  0  0
   -1.8046    3.0190   -1.4223 O   0  0  0  0  0  1  0  0  0  0  0  0
    3.8041   -2.5514    1.6799 O   0  0  0  0  0  1  0  0  0  0  0  0
    0.6265   -0.3861    0.1228 C   0  0  0  0  0  3  0  0  0  0  0  0
    2.3106   -1.8982    0.4453 C   0  0  0  0  0  3  0  0  0  0  0  0
   -5.0798    2.1978   -0.3473 C   0  0  0  0  0  3  0  0  0  0  0  0
    1.2765    2.2544   -0.0514 C   0  0  0  0  0  2  0  0  0  0  0  0
    5.2475   -3.2515   -0.6928 F   0  0  0  0  0  0  0  0  0  0  0  0
    2.9729   -3.8416   -1.5103 C   0  0  0  0  0  3  0  0  0  0  0  0
   -3.3822   -0.1924    1.6588 F   0  0  0  0  0  0  0  0  0  0  0  0
   -1.2587    1.1493    0.7948 C   0  0  0  0  0  3  0  0  0  0  0  0
   -0.9865   -0.2853    0.4352 S   0  0  0  0  0  0  0  0  0  0  0  0
    1.6514    3.0252    2.2876 C   0  0  0  0  0  1  0  0  0  0  0  0
   -2.7566    2.4456   -0.6601 C   0  0  0  0  0  0  0  0  0  0  0  0
    1.2034   -1.5513   -0.4664 C   0  0  0  0  0  3  0  0  0  0  0  0
  1  6  1  0
  1 24  1  0
  2 21  1  0
  3 25  2  0
  3 17  1  0
  5  2  1  0
  7 16  2  0
  7 14  1  0
  9 20  1  0
  9  4  2  0
 10  2  2  0
 11 19  1  0
 11  7  1  0
 12  8  1  0
 12 18  1  0
 12 15  1  0
 13 25  1  0
 15 23  1  0
 17  5  2  0
 18  1  1  0
 20 11  2  0
 22 10  1  0
 22  6  1  0
 23 22  1  0
 25 10  1  0
 26  4  1  0
 26 15  1  0
 26 16  1  0
M  END
$$$$
