
     RDKit          3D

 15 14  0  0  0  0  0  0  0  0999 V2000
    6.7323   -0.6727   60.0917 C   0  0  0  0  0  0  0  0  0  0  0  0
    7.4223    0.7488   59.8689 C   0  0  0  0  0  0  0  0  0  0  0  0
    8.1597    0.7081   58.5561 C   0  0  0  0  0  0  0  0  0  0  0  0
    9.4889    1.1011   58.7877 N   0  0  0  0  0  0  0  0  0  0  0  0
    9.9850    2.5269   58.7172 C   0  0  0  0  0  0  0  0  0  0  0  0
    9.1765    3.3916   59.2928 N   0  0  0  0  0  0  0  0  0  0  0  0
   10.8725    2.8465   57.6387 N   0  0  0  0  0  0  0  0  0  0  0  0
   10.7180    2.2430   56.3806 C   0  0  0  0  0  0  0  0  0  0  0  0
   11.7385    1.2147   56.1121 C   0  0  0  0  0  0  0  0  0  0  0  0
   13.1307    1.7424   55.8272 C   0  0  0  0  0  0  0  0  0  0  0  0
   13.3452    3.1548   56.4554 C   0  0  2  0  0  0  0  0  0  0  0  0
   12.0173    3.8705   56.6603 N   0  0  0  0  0  4  0  0  0  0  0  0
   14.3621    3.9347   55.7915 C   0  0  0  0  0  0  0  0  0  0  0  0
   15.0142    3.4329   54.8704 O   0  0  0  0  0  0  0  0  0  0  0  0
   14.8696    5.1198   56.3898 O   0  0  0  0  0  0  0  0  0  0  0  0
  1  2  1  0
  2  3  1  0
  3  4  1  0
  4  5  1  0
  5  6  2  0
  5  7  1  0
  7  8  1  0
  8  9  1  0
  9 10  1  0
 10 11  1  0
 11 12  1  6
 11 13  1  0
 13 14  2  0
 13 15  1  0
M  CHG  1  12   1
M  END
$$$$
