1W1P_GIO_B_1501
     RDKit          3D

 11 12  0  0  0  0  0  0  0  0999 V2000
   43.2690   77.8320   53.3530 O   0  0  0  0  0  0  0  0  0  0  0  0
   43.6110   76.9400   52.5780 C   0  0  0  0  0  0  0  0  0  0  0  0
   42.6270   76.4090   51.5360 C   0  0  2  0  0  0  0  0  0  0  0  0
   41.1860   76.4810   52.0440 C   0  0  0  0  0  0  0  0  0  0  0  0
   40.5150   75.4970   51.0830 C   0  0  0  0  0  0  0  0  0  0  0  0
   41.4670   74.2990   51.1510 C   0  0  0  0  0  0  0  0  0  0  0  0
   42.7800   74.9600   51.3370 N   0  0  0  0  0  0  0  0  0  0  0  0
   44.0560   74.3900   51.4430 C   0  0  0  0  0  0  0  0  0  0  0  0
   44.1980   73.1760   51.2990 O   0  0  0  0  0  0  0  0  0  0  0  0
   45.2760   75.2600   51.7590 C   0  0  0  0  0  0  0  0  0  0  0  0
   44.8940   76.3810   52.6500 N   0  0  0  0  0  0  0  0  0  0  0  0
  1  2  2  0
  2  3  1  0
  3  4  1  1
  4  5  1  0
  5  6  1  0
  3  7  1  0
  6  7  1  0
  7  8  1  0
  8  9  2  0
  8 10  1  0
  2 11  1  0
 10 11  1  0
M  END
$$$$
