left_molecule_without_hydrogens
     RDKit          3D

 10 10  0  0  0  0  0  0  0  0999 V2000
   57.7298   43.4513   19.4458 N   0  0  0  0  0  0  0  0  0  0  0  0
   56.8728   45.7841   16.0476 C   0  0  0  0  0  0  0  0  0  0  0  0
   57.1267   45.0725   17.1867 C   0  0  0  0  0  0  0  0  0  0  0  0
   56.8325   43.7291   17.2368 C   0  0  0  0  0  0  0  0  0  0  0  0
   57.0936   42.9364   18.4399 C   0  0  0  0  0  0  0  0  0  0  0  0
   56.1174   43.1560   16.2069 C   0  0  0  0  0  0  0  0  0  0  0  0
   55.8545   43.8496   15.0648 C   0  0  0  0  0  0  0  0  0  0  0  0
   56.2497   45.1542   15.0115 C   0  0  0  0  0  0  0  0  0  0  0  0
   56.7194   41.6618   18.4761 N   0  0  0  0  0  0  0  0  0  0  0  0
   55.9070   46.2021   13.4738 Br  0  0  0  0  0  0  0  0  0  0  0  0
  1  5  2  3
  2  3  2  0
  2  8  1  0
  3  4  1  0
  4  5  1  0
  4  6  2  0
  5  9  1  0
  6  7  1  0
  7  8  2  0
  8 10  1  0
M  END
