
     RDKit          3D

 40 43  0  0  0  0  0  0  0  0999 V2000
   -0.9465    1.2317   -3.0050 C   0  0  0  0  0  0  0  0  0  0  0  0
    0.1460   -4.3025    1.0508 C   0  0  0  0  0  0  0  0  0  0  0  0
   -0.2383   -0.0654   -3.4321 C   0  0  0  0  0  0  0  0  0  0  0  0
    0.4759   -4.2110   -0.4488 C   0  0  0  0  0  0  0  0  0  0  0  0
   -1.2579    1.1171   -1.5026 C   0  0  0  0  0  0  0  0  0  0  0  0
   -0.5755   -3.0018    1.4466 C   0  0  0  0  0  0  0  0  0  0  0  0
    0.7044    0.6138    2.0639 C   0  0  0  0  0  0  0  0  0  0  0  0
   -1.0905    2.2396    1.9475 C   0  0  0  0  0  0  0  0  0  0  0  0
    1.5626    1.6001    2.5591 C   0  0  0  0  0  0  0  0  0  0  0  0
   -0.2288    3.2230    2.4428 C   0  0  0  0  0  0  0  0  0  0  0  0
   -1.5652   -0.1342    1.2218 C   0  0  0  0  0  0  0  0  0  0  0  0
   -0.6278    0.9281    1.7423 C   0  0  0  0  0  0  0  0  0  0  0  0
    1.0974    2.9044    2.7469 C   0  0  0  0  0  0  0  0  0  0  0  0
   -0.2686   -0.9184   -2.2173 C   0  0  0  0  0  0  0  0  0  0  0  0
    0.0693   -2.8356   -0.8277 C   0  0  0  0  0  0  0  0  0  0  0  0
   -0.8386   -0.2648   -1.1432 C   0  0  0  0  0  0  0  0  0  0  0  0
   -0.5088   -2.1549    0.2241 C   0  0  0  0  0  0  0  0  0  0  0  0
    0.2066   -2.2331   -2.0832 C   0  0  0  0  0  0  0  0  0  0  0  0
    1.9313    3.8593    3.2273 F   0  0  0  0  0  0  0  0  0  0  0  0
    0.7508   -2.8768   -3.0694 N   0  0  0  0  0  0  0  0  0  0  0  0
   -0.9676   -0.8647    0.0882 N   0  0  0  0  0  0  0  0  0  0  0  0
   -0.2966    2.1122   -3.2017 H   0  0  0  0  0  0  0  0  0  0  0  0
   -1.8912    1.3536   -3.5791 H   0  0  0  0  0  0  0  0  0  0  0  0
    1.0849   -4.4069    1.6377 H   0  0  0  0  0  0  0  0  0  0  0  0
   -0.4997   -5.1844    1.2549 H   0  0  0  0  0  0  0  0  0  0  0  0
    0.8138    0.1393   -3.7262 H   0  0  0  0  0  0  0  0  0  0  0  0
   -0.7836   -0.5573   -4.2663 H   0  0  0  0  0  0  0  0  0  0  0  0
   -0.1138   -4.9536   -1.0284 H   0  0  0  0  0  0  0  0  0  0  0  0
    1.5629   -4.3583   -0.6276 H   0  0  0  0  0  0  0  0  0  0  0  0
   -0.6628    1.8589   -0.9295 H   0  0  0  0  0  0  0  0  0  0  0  0
   -2.3432    1.2606   -1.3140 H   0  0  0  0  0  0  0  0  0  0  0  0
   -0.0603   -2.5107    2.2991 H   0  0  0  0  0  0  0  0  0  0  0  0
   -1.6361   -3.2106    1.7042 H   0  0  0  0  0  0  0  0  0  0  0  0
    1.0831   -0.3899    1.9258 H   0  0  0  0  0  0  0  0  0  0  0  0
   -2.1155    2.5036    1.7189 H   0  0  0  0  0  0  0  0  0  0  0  0
    2.5887    1.3516    2.7980 H   0  0  0  0  0  0  0  0  0  0  0  0
   -0.5910    4.2321    2.5918 H   0  0  0  0  0  0  0  0  0  0  0  0
   -1.8236   -0.8126    2.0602 H   0  0  0  0  0  0  0  0  0  0  0  0
   -2.5305    0.3129    0.8993 H   0  0  0  0  0  0  0  0  0  0  0  0
    0.8720   -2.4632   -4.0208 H   0  0  0  0  0  0  0  0  0  0  0  0
  1  3  1  0
  1  5  1  0
  2  4  1  0
  2  6  1  0
  3 14  1  0
  4 15  1  0
  5 16  1  0
  6 17  1  0
  7  9  2  0
  7 12  1  0
  8 10  1  0
  8 12  2  0
  9 13  1  0
 10 13  2  0
 11 12  1  0
 11 21  1  0
 13 19  1  0
 14 16  2  0
 14 18  1  0
 15 17  2  0
 15 18  1  0
 16 21  1  0
 17 21  1  0
 18 20  2  3
  1 22  1  0
  1 23  1  0
  2 24  1  0
  2 25  1  0
  3 26  1  0
  3 27  1  0
  4 28  1  0
  4 29  1  0
  5 30  1  0
  5 31  1  0
  6 32  1  0
  6 33  1  0
  7 34  1  0
  8 35  1  0
  9 36  1  0
 10 37  1  0
 11 38  1  0
 11 39  1  0
 20 40  1  0
M  END
