7ECR_SIN_B_505
     RDKit          3D

  8  7  0  0  0  0  0  0  0  0999 V2000
  -57.5530  -27.1240  -42.7890 C   0  0  0  0  0  0  0  0  0  0  0  0
  -56.8110  -27.7260  -43.5540 O   0  0  0  0  0  0  0  0  0  0  0  0
  -57.3530  -25.9340  -42.5340 O   0  0  0  0  0  0  0  0  0  0  0  0
  -58.8190  -27.8060  -42.2560 C   0  0  0  0  0  0  0  0  0  0  0  0
  -58.4630  -28.3520  -40.9370 C   0  0  0  0  0  0  0  0  0  0  0  0
  -59.5800  -28.8260  -40.0410 C   0  0  0  0  0  0  0  0  0  0  0  0
  -60.6710  -28.1720  -40.0270 O   0  0  0  0  0  0  0  0  0  0  0  0
  -59.2380  -29.7910  -39.2880 O   0  0  0  0  0  0  0  0  0  0  0  0
  1  2  2  0
  1  3  1  0
  1  4  1  0
  4  5  1  0
  5  6  1  0
  6  7  2  0
  6  8  1  0
M  END
$$$$
