
     RDKit          3D

  5  4  0  0  0  0  0  0  0  0999 V2000
  -23.7630  -68.4350   32.5470 C   0  0  0  0  0  0  0  0  0  0  0  0
  -23.4940  -69.1960   31.3180 N   0  0  0  0  0  0  0  0  0  0  0  0
  -22.6140  -68.4220   30.4380 C   0  0  0  0  0  0  0  0  0  0  0  0
  -22.8430  -70.4660   31.6570 C   0  0  0  0  0  0  0  0  0  0  0  0
  -24.5730  -69.4410   30.7360 O   0  0  0  0  0  0  0  0  0  0  0  0
  1  2  1  0
  2  3  1  0
  2  4  1  0
  2  5  1  0
M  CHG  2   2   1   5  -1
M  END
$$$$
