
     RDKit          3D

 40 44  0  0  0  0  0  0  0  0999 V2000
   15.7990   34.9010   17.7930 C   0  0  0  0  0  0  0  0  0  0  0  0
   15.2650   35.8150   18.6450 O   0  0  0  0  0  0  0  0  0  0  0  0
   15.8940   37.0150   18.3890 C   0  0  0  0  0  0  0  0  0  0  0  0
   16.7990   36.8680   17.3670 O   0  0  0  0  0  0  0  0  0  0  0  0
   16.7810   35.5430   17.0400 C   0  0  0  0  0  0  0  0  0  0  0  0
   17.5590   34.8700   16.1090 C   0  0  0  0  0  0  0  0  0  0  0  0
   17.2820   33.5300   15.9640 C   0  0  0  0  0  0  0  0  0  0  0  0
   16.3260   32.9060   16.7240 C   0  0  0  0  0  0  0  0  0  0  0  0
   15.4960   33.5800   17.6090 C   0  0  0  0  0  0  0  0  0  0  0  0
   18.3310   32.5530   14.9410 S   0  0  0  0  0  0  0  0  0  0  0  0
   17.5450   31.4520   14.4340 O   0  0  0  0  0  0  0  0  0  0  0  0
   18.9800   33.4600   14.0140 O   0  0  0  0  0  0  0  0  0  0  0  0
   19.5450   31.9210   15.8580 N   0  0  0  0  0  0  0  0  0  0  0  0
   20.4050   32.8770   16.5370 C   0  0  0  0  0  0  0  0  0  0  0  0
   21.8880   32.5200   16.5770 C   0  0  0  0  0  0  0  0  0  0  0  0
   22.4580   32.4660   15.1510 C   0  0  0  0  0  0  0  0  0  0  0  0
   22.6430   33.5450   17.4220 C   0  0  0  0  0  0  0  0  0  0  0  0
   19.2780   30.6780   16.5480 C   0  0  0  0  0  0  0  0  0  0  0  0
   20.1130   29.5170   15.9900 C   0  0  0  0  0  0  0  0  0  0  0  0
   20.0080   28.4050   16.9070 O   0  0  0  0  0  0  0  0  0  0  0  0
   19.7050   29.0580   14.6090 C   0  0  0  0  0  0  0  0  0  0  0  0
   20.6950   28.1640   14.0840 N   0  0  0  0  0  0  0  0  0  0  0  0
   21.5680   28.4800   13.1080 C   0  0  0  0  0  0  0  0  0  0  0  0
   21.6490   29.5530   12.5210 O   0  0  0  0  0  0  0  0  0  0  0  0
   22.3930   27.4380   12.8720 O   0  0  0  0  0  0  0  0  0  0  0  0
   23.2150   27.5130   11.6860 C   0  0  0  0  0  0  0  0  0  0  0  0
   24.5420   26.8680   12.0230 C   0  0  0  0  0  0  0  0  0  0  0  0
   24.2740   25.4600   11.9680 O   0  0  0  0  0  0  0  0  0  0  0  0
   23.3070   25.2350   10.9570 C   0  0  0  0  0  0  0  0  0  0  0  0
   22.2570   24.4470   11.5030 O   0  0  0  0  0  0  0  0  0  0  0  0
   21.0310   25.1440   11.5490 C   0  0  0  0  0  0  0  0  0  0  0  0
   21.2000   26.3740   10.6240 C   0  0  0  0  0  0  0  0  0  0  0  0
   22.6950   26.5770   10.5860 C   0  0  0  0  0  0  0  0  0  0  0  0
   18.3500   28.3800   14.5140 C   0  0  0  0  0  0  0  0  0  0  0  0
   17.8930   26.5890   12.7950 C   0  0  0  0  0  0  0  0  0  0  0  0
   17.6510   26.2220   11.4790 C   0  0  0  0  0  0  0  0  0  0  0  0
   17.4620   27.1500   10.4950 C   0  0  0  0  0  0  0  0  0  0  0  0
   17.6060   28.5090   10.7860 C   0  0  0  0  0  0  0  0  0  0  0  0
   17.8720   28.8930   12.1120 C   0  0  0  0  0  0  0  0  0  0  0  0
   18.0130   27.9390   13.1060 C   0  0  0  0  0  0  0  0  0  0  0  0
  1  2  1  0
  2  3  1  0
  3  4  1  0
  1  5  2  0
  4  5  1  0
  5  6  1  0
  6  7  2  0
  7  8  1  0
  1  9  1  0
  8  9  2  0
  7 10  1  0
 10 11  2  0
 10 12  2  0
 10 13  1  0
 13 14  1  0
 14 15  1  0
 15 16  1  0
 15 17  1  0
 13 18  1  0
 18 19  1  0
 19 20  1  0
 19 21  1  0
 21 22  1  0
 22 23  1  0
 23 24  2  0
 23 25  1  0
 25 26  1  0
 26 27  1  0
 27 28  1  0
 28 29  1  0
 29 30  1  0
 30 31  1  0
 31 32  1  0
 26 33  1  0
 29 33  1  0
 32 33  1  0
 21 34  1  0
 35 36  2  0
 36 37  1  0
 37 38  2  0
 38 39  1  0
 34 40  1  0
 35 40  1  0
 39 40  2  0
M  END
$$$$
