
     RDKit          3D

 19 20  0  0  0  0  0  0  0  0999 V2000
   -3.0503    1.3646    0.0296 C   0  0  0  0  0  0  0  0  0  0  0  0
   -2.3088    2.4937   -0.2656 C   0  0  0  0  0  0  0  0  0  0  0  0
   -0.9460    2.3666   -0.3960 C   0  0  0  0  0  0  0  0  0  0  0  0
   -0.2768    1.1697   -0.2478 C   0  0  0  0  0  0  0  0  0  0  0  0
   -1.0147    0.0453    0.0461 C   0  0  0  0  0  0  0  0  0  0  0  0
   -2.3981    0.1537    0.1824 C   0  0  0  0  0  0  0  0  0  0  0  0
   -0.3507   -1.1475    0.1942 C   0  0  0  0  0  0  0  0  0  0  0  0
    1.0296   -1.2387    0.0550 C   0  0  0  0  0  0  0  0  0  0  0  0
    1.7414   -0.1279   -0.2334 N   0  0  0  0  0  0  0  0  0  0  0  0
    1.0760    1.0303   -0.3748 C   0  0  0  0  0  0  0  0  0  0  0  0
    1.9544    2.3578   -0.7225 S   0  0  0  0  0  0  0  0  0  0  0  0
    3.1263   -0.1845   -0.3795 O   0  0  0  0  0  0  0  0  0  0  0  0
   -4.1248    1.4326    0.1385 H   0  0  0  0  0  0  0  0  0  0  0  0
   -2.8405    3.4365   -0.3818 H   0  0  0  0  0  0  0  0  0  0  0  0
   -0.3513    3.2381   -0.6264 H   0  0  0  0  0  0  0  0  0  0  0  0
   -2.9485   -0.7435    0.4125 H   0  0  0  0  0  0  0  0  0  0  0  0
   -0.9270   -2.0150    0.4217 H   0  0  0  0  0  0  0  0  0  0  0  0
    1.5242   -2.1963    0.1782 H   0  0  0  0  0  0  0  0  0  0  0  0
    3.5577   -0.0984   -1.2987 H   0  0  0  0  0  0  0  0  0  0  0  0
  1  2  2  0
  2  3  1  0
  3  4  2  0
  4  5  1  0
  5  6  2  0
  5  7  1  0
  7  8  2  0
  8  9  1  0
  9 10  1  0
 10 11  2  0
  9 12  1  0
  6  1  1  0
 10  4  1  0
  1 13  1  0
  2 14  1  0
  3 15  1  0
  6 16  1  0
  7 17  1  0
  8 18  1  0
 12 19  1  0
M  END
