8002.7869.ip0.dpboltz0
  PyMOL3.0          3D                             0

 18 18  0  0  0  0  0  0  0  0999 V2000
   88.8240    0.8430   14.5790 C   0  0  0  0  0  0  0  0  0  0  0  0
   87.3180    1.8770   13.0770 C   0  0  0  0  0  0  0  0  0  0  0  0
   88.2090    0.8370   13.3070 C   0  0  0  0  0  0  0  0  0  0  0  0
   88.5210    1.8160   15.4910 C   0  0  0  0  0  0  0  0  0  0  0  0
   87.0530    2.8250   14.0240 C   0  0  0  0  0  0  0  0  0  0  0  0
   87.6520    2.8030   15.2290 N   0  3  0  0  0  0  0  0  0  0  0  0
   88.4317   -0.0608   15.0453 H   0  0  0  0  0  0  0  0  0  0  0  0
   89.8988    0.8991   14.4068 H   0  0  0  0  0  0  0  0  0  0  0  0
   86.3658    1.3512   13.0068 H   0  0  0  0  0  0  0  0  0  0  0  0
   87.6917    2.4126   12.2043 H   0  0  0  0  0  0  0  0  0  0  0  0
   87.6222   -0.0803   13.2590 H   0  0  0  0  0  0  0  0  0  0  0  0
   88.9934    0.8907   12.5520 H   0  0  0  0  0  0  0  0  0  0  0  0
   89.4631    2.3600   15.5584 H   0  0  0  0  0  0  0  0  0  0  0  0
   88.1366    1.2988   16.3701 H   0  0  0  0  0  0  0  0  0  0  0  0
   86.0129    2.6185   14.2764 H   0  0  0  0  0  0  0  0  0  0  0  0
   87.3005    3.7867   13.5746 H   0  0  0  0  0  0  0  0  0  0  0  0
   88.2167    3.6403   15.2406 H   0  0  0  0  0  0  0  0  0  0  0  0
   86.9220    2.7516   15.9251 H   0  0  0  0  0  0  0  0  0  0  0  0
  1  4  1  0  0  0  0
  1  3  1  0  0  0  0
  2  3  1  0  0  0  0
  2  5  1  0  0  0  0
  4  6  1  0  0  0  0
  5  6  1  0  0  0  0
  1  7  1  0  0  0  0
  1  8  1  0  0  0  0
  2  9  1  0  0  0  0
  2 10  1  0  0  0  0
  3 11  1  0  0  0  0
  3 12  1  0  0  0  0
  4 13  1  0  0  0  0
  4 14  1  0  0  0  0
  5 15  1  0  0  0  0
  5 16  1  0  0  0  0
  6 17  1  0  0  0  0
  6 18  1  0  0  0  0
M  END
$$$$
