
     RDKit          3D

 16 16  0  0  0  0  0  0  0  0999 V2000
   -2.4744    0.1047    0.2002 C   0  0  0  0  0  0  0  0  0  0  0  0
   -0.9983    0.0505    0.0433 C   0  0  0  0  0  0  0  0  0  0  0  0
   -0.2492    1.1740   -0.2517 C   0  0  0  0  0  0  0  0  0  0  0  0
    1.1245    1.0445   -0.3829 C   0  0  0  0  0  0  0  0  0  0  0  0
    1.9644    2.4010   -0.7317 S   0  0  0  0  0  0  0  0  0  0  0  0
    1.7248   -0.1497   -0.2274 N   0  0  0  0  0  0  0  0  0  0  0  0
    1.0407   -1.2696    0.0595 C   0  0  0  0  0  0  0  0  0  0  0  0
   -0.3279   -1.1674    0.1953 C   0  0  0  0  0  0  0  0  0  0  0  0
    3.0905   -0.2188   -0.3690 O   0  0  0  0  0  0  0  0  0  0  0  0
   -2.7199    0.1510    1.2845 H   0  0  0  0  0  0  0  0  0  0  0  0
   -2.8558    0.9732   -0.3604 H   0  0  0  0  0  0  0  0  0  0  0  0
   -2.8761   -0.8679   -0.1752 H   0  0  0  0  0  0  0  0  0  0  0  0
   -0.7702    2.1154   -0.3689 H   0  0  0  0  0  0  0  0  0  0  0  0
    1.5553   -2.2227    0.1796 H   0  0  0  0  0  0  0  0  0  0  0  0
   -0.8595   -2.0797    0.4261 H   0  0  0  0  0  0  0  0  0  0  0  0
    3.6311   -0.0385    0.4787 H   0  0  0  0  0  0  0  0  0  0  0  0
  1  2  1  0
  2  3  2  0
  3  4  1  0
  4  5  2  0
  4  6  1  0
  6  7  1  0
  7  8  2  0
  6  9  1  0
  8  2  1  0
  1 10  1  0
  1 11  1  0
  1 12  1  0
  3 13  1  0
  7 14  1  0
  8 15  1  0
  9 16  1  0
M  END
