1a30_ligand
     RDKit          3D

 26 25  0  0  0  0  0  0  0  0999 V2000
    4.2226   30.3602    4.3796 N   0  0  0  0  0  4  0  0  0  0  0  0
    5.1146   29.1782    4.2346 C   0  0  2  0  0  0  0  0  0  0  0  0
    6.5556   29.5562    4.5736 C   0  0  0  0  0  0  0  0  0  0  0  0
    7.0056   30.6712    4.2876 O   0  0  0  0  0  0  0  0  0  0  0  0
    5.0196   28.6022    2.8196 C   0  0  0  0  0  0  0  0  0  0  0  0
    5.2086   29.6302    1.7216 C   0  0  0  0  0  0  0  0  0  0  0  0
    5.0066   29.0592    0.3316 C   0  0  0  0  0  0  0  0  0  0  0  0
    4.0446   28.2812    0.1346 O   0  0  0  0  0  1  0  0  0  0  0  0
    5.8066   29.4042   -0.5674 O   0  0  0  0  0  0  0  0  0  0  0  0
    7.2546   28.6402    5.2326 N   0  0  0  0  0  0  0  0  0  0  0  0
    8.6396   28.8562    5.6296 C   0  0  2  0  0  0  0  0  0  0  0  0
    9.4826   27.7022    5.1166 C   0  0  0  0  0  0  0  0  0  0  0  0
    9.5636   26.6482    5.7516 O   0  0  0  0  0  0  0  0  0  0  0  0
    8.7276   28.9802    7.1486 C   0  0  0  0  0  0  0  0  0  0  0  0
    8.0306   30.2252    7.6576 C   0  0  0  0  0  0  0  0  0  0  0  0
    8.6516   31.3022    7.5906 O   0  0  0  0  0  1  0  0  0  0  0  0
    6.8556   30.1412    8.0816 O   0  0  0  0  0  0  0  0  0  0  0  0
   10.0676   27.8992    3.9386 N   0  0  0  0  0  0  0  0  0  0  0  0
   10.8796   26.8772    3.2956 C   0  0  2  0  0  0  0  0  0  0  0  0
   12.3656   27.1832    3.3376 C   0  0  0  0  0  0  0  0  0  0  0  0
   13.1656   26.2262    3.2616 O   0  0  0  0  0  1  0  0  0  0  0  0
   10.4196   26.7062    1.8546 C   0  0  0  0  0  0  0  0  0  0  0  0
    8.9646   26.2502    1.8396 C   0  0  0  0  0  0  0  0  0  0  0  0
    8.2006   26.9812    0.7776 C   0  0  0  0  0  0  0  0  0  0  0  0
    8.9026   24.7392    1.6716 C   0  0  0  0  0  0  0  0  0  0  0  0
   12.7156   28.3762    3.4476 O   0  0  0  0  0  0  0  0  0  0  0  0
  3  2  1  0
  2  5  1  0
  2  1  1  6
  5  6  1  0
  6  7  1  0
  7  8  1  0
  7  9  2  0
  3  4  2  0
 12 11  1  0
 11 14  1  1
 11 10  1  0
 14 15  1  0
 15 16  1  0
 15 17  2  0
 12 13  2  0
 19 20  1  0
 19 22  1  6
 18 19  1  0
 22 23  1  0
 23 25  1  0
 23 24  1  0
 20 26  2  0
 20 21  1  0
 10  3  1  0
 12 18  1  0
M  CHG  4   1   1   8  -1  16  -1  21  -1
M  END
