PM2
     RDKit          3D

 30 33  0  0  0  0  0  0  0  0999 V2000
   44.0410  110.8130   82.1470 C   0  0  0  0  0  0  0  0  0  0  0  0
   44.2610  111.3110   80.8040 C   0  0  0  0  0  0  0  0  0  0  0  0
   45.2100  110.5560   82.9790 C   0  0  0  0  0  0  0  0  0  0  0  0
   45.6100  111.5430   80.3020 C   0  0  0  0  0  0  0  0  0  0  0  0
   46.5360  110.7870   82.4820 C   0  0  0  0  0  0  0  0  0  0  0  0
   46.7450  111.2750   81.1590 C   0  0  0  0  0  0  0  0  0  0  0  0
   45.8300  112.0660   78.9070 C   0  0  0  0  0  0  0  0  0  0  0  0
   45.1380  111.2800   77.8400 N   0  0  0  0  0  0  0  0  0  0  0  0
   42.0260  111.7750   83.5410 C   0  0  0  0  0  0  0  0  0  0  0  0
   40.6110  111.3840   84.1200 C   0  0  0  0  0  0  0  0  0  0  0  0
   38.5650  111.7500   82.5500 C   0  0  0  0  0  0  0  0  0  0  0  0
   37.9530  111.4380   81.5380 O   0  0  0  0  0  0  0  0  0  0  0  0
   42.6420  110.5510   82.7440 C   0  0  0  0  0  0  0  0  0  0  0  0
   39.7000  111.0510   82.9940 N   0  0  0  0  0  0  0  0  0  0  0  0
   40.2150  109.8540   82.2560 C   0  0  0  0  0  0  0  0  0  0  0  0
   41.6090  110.0850   81.6430 C   0  0  0  0  0  0  0  0  0  0  0  0
   37.9590  112.9180   83.2770 C   0  0  0  0  0  0  0  0  0  0  0  0
   37.6670  114.1550   82.6070 C   0  0  0  0  0  0  0  0  0  0  0  0
   37.6220  112.8260   84.6570 C   0  0  0  0  0  0  0  0  0  0  0  0
   37.0480  115.2260   83.3700 C   0  0  0  0  0  0  0  0  0  0  0  0
   37.0540  113.8200   85.3650 N   0  0  0  0  0  0  0  0  0  0  0  0
   36.6890  116.5330   82.7400 C   0  0  0  0  0  0  0  0  0  0  0  0
   36.7700  114.9800   84.7460 C   0  0  0  0  0  0  0  0  0  0  0  0
   35.1840  116.7610   82.6530 C   0  0  0  0  0  0  0  0  0  0  0  0
   34.3910  115.8010   81.8010 C   0  0  0  0  0  0  0  0  0  0  0  0
   34.2890  115.9720   80.3780 C   0  0  0  0  0  0  0  0  0  0  0  0
   33.7020  114.6730   82.4240 C   0  0  0  0  0  0  0  0  0  0  0  0
   33.5110  115.0380   79.5610 C   0  0  0  0  0  0  0  0  0  0  0  0
   32.9400  113.7600   81.6260 C   0  0  0  0  0  0  0  0  0  0  0  0
   32.8370  113.9310   80.1880 C   0  0  0  0  0  0  0  0  0  0  0  0
  1  2  2  0
  1  3  1  0
  1 13  1  0
  2  4  1  0
  3  5  2  0
  4  6  2  0
  4  7  1  0
  5  6  1  0
  7  8  1  0
  9 10  1  0
  9 13  1  0
 10 14  1  0
 11 12  2  0
 11 14  1  0
 11 17  1  0
 13 16  1  0
 14 15  1  0
 15 16  1  0
 17 18  2  0
 17 19  1  0
 18 20  1  0
 19 21  2  0
 20 22  1  0
 20 23  2  0
 21 23  1  0
 22 24  1  0
 24 25  1  0
 25 26  2  0
 25 27  1  0
 26 28  1  0
 27 29  2  0
 28 30  2  0
 29 30  1  0
M  END
