/true.pdb
 OpenBabel03212512233D

 13 12  0  0  1  0  0  0  0  0999 V2000
   19.4010   47.5560   15.6480 P   0  0  2  0  0  0  0  0  0  0  0  0
   20.5770   47.7740   16.6620 O   0  0  0  0  0  0  0  0  0  0  0  0
   18.6880   46.1430   16.1630 O   0  0  0  0  0  0  0  0  0  0  0  0
   19.8900   47.2980   14.1300 O   0  0  0  0  0  0  0  0  0  0  0  0
   18.4900   48.7710   15.6410 O   0  0  0  0  0  0  0  0  0  0  0  0
   20.1850   47.9850   18.0700 C   0  0  0  0  0  0  0  0  0  0  0  0
   20.5690   49.3750   18.6430 C   0  0  1  0  0  0  0  0  0  0  0  0
   20.1270   49.1030   20.0850 C   0  0  0  0  0  0  0  0  0  0  0  0
   20.5500   50.0340   21.1310 O   0  0  0  0  0  0  0  0  0  0  0  0
   22.0140   49.6210   18.5840 O   0  0  0  0  0  0  0  0  0  0  0  0
   17.8460   45.4590   15.1050 C   0  0  0  0  0  0  0  0  0  0  0  0
   17.4430   43.9950   15.3890 C   0  0  0  0  0  0  0  0  0  0  0  0
   17.1080   43.4820   14.0420 N   0  0  0  0  0  0  0  0  0  0  0  0
  1  4  2  6  0  0  0
  1  3  1  0  0  0  0
  1  2  1  0  0  0  0
  2  6  1  0  0  0  0
  5  1  1  0  0  0  0
  6  7  1  0  0  0  0
  7 10  1  1  0  0  0
  7  8  1  0  0  0  0
  8  9  1  0  0  0  0
 11 12  1  0  0  0  0
 11  3  1  0  0  0  0
 13 12  1  0  0  0  0
M  END
$$$$
